Miscellaneous_files/remaining_buses.csv
bus_i,type,Pd,Qd,Gs,Bs,area,Vm,Va,baseKV,zone,Vmax,Vmin,lam_P,lam_Q,mu_Vmax,mu_Vmin
10001,1,82.57826204,2.54,0,49.90152656,1,1.0116409,-39.843601,138,1,1.1,0.9,20.77,0.28,0,0
10022,1,439.9923956,15.92,0,270.5474814,1,1.0405375,-35.691866,138,1,1.1,0.9,20.22,0.24,0,0
10025,1,166.2660144,12.76,0,134.0947899,1,1.0333372,-32.720484,138,1,1.1,0.9,19.92,0.11,0,0
10033,1,276.3515233,6.96,0,121.9328639,1,1.016838,-32.557944,138,1,1.1,0.9,19.94,0.17,0,0
10035,1,7.183808166,42.65,0,59.91639259,1,1.0151295,-32.454759,138,1,1.1,0.9,19.93,0.18,0,0
10093,1,370.4615284,11.16,0,271.1747804,1,1.0241716,-35.703976,138,1,1.1,0.9,20.27,0.25,0,0
10209,1,1422.839525,49.51,0,287.398128,1,1.0183453,-37.187623,138,1,1.1,0.9,20.32,0.32,0,0
10228,1,3535.26397,19.97,0,730.0757217,1,1.0329023,-38.102186,138,1,1.1,0.9,20.46,0.28,0,0
10344,1,331.1848863,16.32,0,139.5426336,1,1.0214487,-36.770798,138,1,1.1,0.9,20.31,0.27,0,0
10525,1,171.9531921,16.57,0,107.5980698,1,1.0226295,-32.157888,138,1,1.1,0.9,20.08,0.32,0,0
10558,1,210.2245255,10.15,0,92.19101337,1,1.0277215,-23.392146,138,1,1.1,0.9,19.69,0.1,0,0
10570,1,138.1568907,3.85,0,106.911527,1,1.0360419,-24.107664,138,1,1.1,0.9,19.75,0.04,0,0
10600,1,44.03308092,10.11,0,54.66152898,1,1.0313718,-21.740885,138,1,1.1,0.9,19.6,0.05,0,0
10607,1,280.072278,24.66,0,105.1671812,1,1.0284949,-19.599624,138,1,1.1,0.9,19.43,0.07,0,0
10609,1,40.93870246,4.53,0,85.32295873,1,1.0302068,-20.507036,138,1,1.1,0.9,19.51,0.05,0,0
10677,1,922.8540044,10.06,0,130.2404532,1,1.0085607,-20.594404,138,1,1.1,0.9,19.55,0.08,0,0
10683,2,694.3832643,0,0,295.051971,1,1.0464451,-19.462121,18,1,1.1,0.9,19.5,0,0,0
10710,2,1557.558435,0,0,244.4370283,1,1.0095772,-18.47539,13.8,1,1.1,0.9,19.48,0.13,0,0
10750,2,1724.09666,0,0,362.4129612,1,1.0418685,-15.244608,13.8,1,1.1,0.9,19.38,0.05,0,0
10768,2,-123.4703589,0,0,53.96570494,1,1.0303911,-11.797155,13.8,1,1.1,0.9,19.06,0.03,0,0
10811,2,-76.17161698,0,0,144.1502018,1,1.065347,-11.188121,13.8,1,1.1,0.9,19.31,0,0,0
10859,2,1157.487846,0,0,1031.172679,1,1.0395141,-27.718211,13.8,1,1.1,0.9,19.87,0.15,0,0
10908,2,1047.146271,0,0,290.5001702,1,1.0366572,-19.063509,18,1,1.1,0.9,19.5,0.03,0,0
10919,2,450.592393,0,0,299.2455287,1,1.0320429,-22.069537,22,1,1.1,0.9,19.58,0.13,0,0
10930,2,487.8246578,0,0,118.6728001,1,1.0619549,-27.711987,13.8,1,1.1,0.9,19.79,0,0,0
10944,2,3954.395585,0,0,198.1823567,1,1.0380607,-14.3805,24,1,1.1,0.9,19.28,0.04,0,0
10965,2,584.5949672,0,0,81.14828099,1,1.0351309,-14.33691,13.8,1,1.1,0.9,19.1,0.05,0,0
11014,2,5536.320128,0,0,111.6928579,1,1.069422,-10.58309,13.8,1,1.1,0.9,19.31,0,0,0
11041,2,726.1980459,0,0,61.5721332,1,1.0358252,-13.723471,13.8,1,1.1,0.9,19.28,0.01,0,0
11077,2,315.9778201,0,0,319.3890839,1,1.0428034,-16.629015,24,1,1.1,0.9,19.4,0.05,0,0
13000,1,256.4613945,3.53,0,138.4341614,2,1.0310077,-46.833535,138,1,1.1,0.9,21.03,0.22,0,0
13175,1,486.9378612,39.6,0,272.2695761,2,1.0430552,-37.901312,138,1,1.1,0.9,20.41,0.23,0,0
13177,1,495.4804887,13.78,0,238.896989,2,1.0233862,-37.730304,138,1,1.1,0.9,20.52,0.28,0,0
13181,1,308.3485674,25.25,0,232.4869781,2,1.0337272,-36.195457,138,1,1.1,0.9,20.28,0.22,0,0
13183,1,230.4878776,25.06,0,106.5272298,2,1.0253519,-36.462582,138,1,1.1,0.9,20.33,0.25,0,0
13265,1,3516.840175,24.25,0,843.87551,2,1.0267286,-35.405224,138,1,1.1,0.9,20.21,0.29,0,0
13366,1,470.5585441,6.56,0,148.448362,2,1.0115171,-48.14724,138,1,1.1,0.9,20.93,0.17,0,0
13420,1,290.6477638,5.58,0,39.76445232,2,1.0249372,-27.614517,138,1,1.1,0.9,20.05,0.04,0,0
13446,1,184.8310071,3.59,0,107.879299,2,1.0374038,-19.672627,138,1,1.1,0.9,19.35,-0.03,0,0
13475,2,302.5404654,0,0,216.8536757,2,1.029694,-18.108811,13.8,1,1.1,0.9,19.44,0.07,0,0
13499,2,3365.220354,0,0,289.3230565,2,0.9962793,-21.153432,13.8,1,1.1,0.9,19.56,0.13,0,0
13509,2,614.9079513,0,0,214.0486109,2,1.0300297,-17.960999,13.8,1,1.1,0.9,19.44,0.07,0,0
13518,2,1055.555217,0,0,274.8644267,2,1.036263,-20.983069,18,1,1.1,0.9,19.41,0.1,0,0
13669,2,1471.879886,0,0,368.8362782,2,1.0320242,-26.474307,13.8,1,1.1,0.9,19.77,0.15,0,0
13684,2,585.6097587,0,0,702.5515258,2,1.0191376,-21.660071,22,1,1.1,0.9,19.56,0,0,0
13693,2,1154.567077,0,0,175.5809942,2,1.0512742,-26.165602,13.8,1,1.1,0.9,19.79,0,0,0
13698,2,-307.8895041,0,0,449.8767697,2,1.0548541,-18.66843,13.8,1,1.1,0.9,19.48,0.06,0,0
20000,1,160.7763303,19.17,0,69.14034705,3,1.0279988,-58.474584,138,1,1.1,0.9,22.32,0.12,0,0
20007,1,313.3920519,8.81,0,234.0177562,3,1.0191911,-49.014081,345,1,1.1,0.9,21.07,0.19,0,0
20026,1,822.1087997,0.78,0,68.90386656,3,1.0198386,-53.858677,138,1,1.1,0.9,20.86,0.15,0,0
20136,1,4643.749386,4.95,0,600.4967139,3,1.013015,-64.800504,138,1,1.1,0.9,21.54,0.11,0,0
20299,2,288.7740483,0,0,180.1022281,3,1.030589,-55.181508,24,1,1.1,0.9,21,0,0,0
20390,2,1140.787708,0,0,545.3670512,3,1.0278596,-48.293015,13.8,1,1.1,0.9,20.63,0.15,0,0
20428,2,1054.083982,0,0,428.758931,3,1.0268208,-55.691679,13.8,1,1.1,0.9,20.99,0.08,0,0
20439,2,608.6149624,0,0,369.2815443,3,0.9943235,-53.485775,18,1,1.1,0.9,20.93,0.11,0,0
20487,2,603.4272789,0,0,501.6760262,3,1.0314844,-57.91116,13.8,1,1.1,0.9,21.01,0.09,0,0
21108,1,1610.680851,12.29,0,365.2639743,4,1.0258804,-71.367748,138,1,1.1,0.9,21.81,0.04,0,0
21121,1,371.4262196,27.49,0,257.2384901,4,1.0163187,-70.088327,138,1,1.1,0.9,21.69,0.1,0,0
21131,1,149.0822439,16.09,0,48.47729751,4,1.0207301,-70.696091,138,1,1.1,0.9,21.77,0.06,0,0
21140,1,734.5640905,26.69,0,240.8945666,4,0.9996202,-69.8417,138,1,1.1,0.9,21.73,0.15,0,0
21165,1,1210.709643,32.59,0,339.5856589,4,1.0025669,-69.629021,138,1,1.1,0.9,21.71,0.13,0,0
21182,1,449.8386636,30.16,0,233.9463021,4,1.0276506,-70.680765,138,1,1.1,0.9,21.75,0.03,0,0
21497,1,2059.016144,19.72,0,513.6754518,4,1.0056325,-70.015129,138,1,1.1,0.9,21.58,0.11,0,0
21596,2,1101.334529,0,0,363.3723497,4,0.9997398,-59.213671,18,1,1.1,0.9,21.17,0,0,0
21646,2,370.8710122,0,0,328.5742603,4,1.045768,-59.267038,13.8,1,1.1,0.9,21.17,0,0,0
21681,2,3520.592276,0,0,127.0095503,4,1.0122942,-61.159784,13.8,1,1.1,0.9,21.21,0,0,0
23017,1,510.1677158,17.88,0,222.637198,5,1.0463205,-68.967024,138,1,1.1,0.9,21.45,0.04,0,0
23054,1,258.0057106,10.97,0,126.2743951,5,1.0070849,-67.260535,138,1,1.1,0.9,21.48,0.08,0,0
23060,1,227.4665242,5.78,0,94.61000964,5,1.0120505,-66.721324,138,1,1.1,0.9,21.41,0.06,0,0
23099,1,2557.742792,26.81,0,208.9705731,5,1.0097596,-66.707298,138,1,1.1,0.9,21.41,0.06,0,0
23168,1,1753.631416,20.83,0,265.3802389,5,1.0042402,-68.765622,138,1,1.1,0.9,21.68,0.16,0,0
23230,1,856.0928338,24.78,0,276.7289349,5,1.0215062,-69.182665,138,1,1.1,0.9,21.71,0.07,0,0
23263,1,100.3610596,3.12,0,25.6788298,5,1.0240098,-63.02576,138,1,1.1,0.9,21.39,0.04,0,0
23377,2,1563.879148,0,0,435.9458377,5,1.0214623,-59.086875,13.8,1,1.1,0.9,21.26,0,0,0
23417,2,-28.99524403,0,0,204.6671591,5,1.0349383,-58.43468,24,1,1.1,0.9,21.12,0,0,0
23510,2,128.7956914,0,0,147.2521375,5,1.0273625,-56.85722,13.8,1,1.1,0.9,20.97,0,0,0
25096,1,702.070212,33.86,0,224.1562597,6,1.024661,-76.697015,138,1,1.1,0.9,21.81,0.07,0,0
25160,1,285.9534501,10.84,0,41.97512795,6,1.0154221,-79.752071,138,1,1.1,0.9,22.04,0.13,0,0
25268,1,204.8720802,20.61,0,431.8235563,6,1.0205479,-75.876981,345,1,1.1,0.9,21.85,0.06,0,0
25276,1,234.3243207,16.9,0,63.19608025,6,1.0282236,-78.920104,138,1,1.1,0.9,21.9,0.08,0,0
25284,1,197.7123647,16.58,0,62.87958374,6,1.0278529,-78.742699,138,1,1.1,0.9,21.89,0.08,0,0
25289,1,1283.260813,32.45,0,827.0953717,6,1.0296054,-75.139827,345,1,1.1,0.9,21.79,0.04,0,0
25362,1,351.5696045,44.62,0,67.1287178,6,1.0252125,-79.377626,138,1,1.1,0.9,21.95,0.11,0,0
25375,1,347.1297927,28.19,0,83.19419988,6,1.0197628,-78.833027,138,1,1.1,0.9,21.87,0.04,0,0
25385,1,862.0082186,21.68,0,70.76487431,6,1.0265331,-78.779356,138,1,1.1,0.9,21.84,0.06,0,0
25400,1,197.3784405,24.04,0,14.21245061,6,1.0363533,-79.796638,138,1,1.1,0.9,21.98,0.04,0,0
25403,1,490.4724179,29.79,0,193.494554,6,1.0191135,-76.011291,345,1,1.1,0.9,21.84,0.04,0,0
25426,1,620.3705964,11.13,0,127.0702174,6,1.0236518,-80.062484,138,1,1.1,0.9,22.02,0.11,0,0
25439,1,39.31691418,34.42,0,224.6411918,6,1.0201511,-76.561152,345,1,1.1,0.9,21.92,0.06,0,0
25447,1,244.6913115,34.08,0,23.3175614,6,1.0217732,-79.90538,138,1,1.1,0.9,22,0.11,0,0
25455,1,520.7294821,16.96,0,60.49142433,6,1.0224907,-80.037731,138,1,1.1,0.9,22.02,0.09,0,0
25474,1,518.0909575,30.7,0,126.2029417,6,1.0322755,-79.780972,138,1,1.1,0.9,21.99,0.07,0,0
25490,1,841.4882243,8.95,0,207.8563468,6,1.0451554,-79.133464,138,1,1.1,0.9,21.88,0,0,0
25554,1,280.668604,7.62,0,32.17060046,6,1.022243,-80.51811,138,1,1.1,0.9,22.09,0.1,0,0
25576,1,288.6840369,14.68,0,41.97642179,6,1.0280496,-79.758169,138,1,1.1,0.9,21.97,0.07,0,0
25587,1,166.9282935,25.46,0,9.207410269,6,1.0263876,-80.292087,138,1,1.1,0.9,22.05,0.1,0,0
25595,1,589.0586204,15.07,0,199.9038205,6,1.0167302,-79.904338,138,1,1.1,0.9,21.96,0.14,0,0
25598,1,289.4493574,20,0,35.33262425,6,1.0296124,-79.911291,138,1,1.1,0.9,22.01,0.08,0,0
25618,1,584.7263299,23.1,0,88.6825092,6,1.0175652,-80.176314,138,1,1.1,0.9,22.08,0.14,0,0
25657,1,199.7006004,42.54,0,35.61744072,6,0.9954868,-80.876325,138,1,1.1,0.9,22.1,0.2,0,0
25659,1,145.9346551,21.57,0,4.000241217,6,1.0203682,-80.984547,138,1,1.1,0.9,22.1,0.12,0,0
25665,1,684.2447867,16.58,0,95.38875562,6,1.0226274,-80.952639,138,1,1.1,0.9,22.14,0.11,0,0
25675,1,162.19108,48.67,0,45.57429183,6,0.9967043,-80.755134,138,1,1.1,0.9,22.07,0.18,0,0
25714,1,671.2877168,28.77,0,174.8188995,6,1.030876,-80.795402,138,1,1.1,0.9,22.08,0.08,0,0
25730,1,389.4007005,16.55,0,74.93802855,6,1.0129325,-80.365905,138,1,1.1,0.9,22.01,0.14,0,0
25769,1,114.6759777,8.43,0,9.939406523,6,0.9940189,-88.338985,13.8,1,1.1,0.9,22.29,0.22,0,0
25829,2,1012.93439,0,0,254.8537331,6,1.0256281,-70.358104,13.8,1,1.1,0.9,21.65,0,0,0
25834,2,-90.2393186,0,0,105.060544,6,1.0425956,-69.194983,13.8,1,1.1,0.9,21.45,0.02,0,0
25904,2,374.0767036,0,0,140.4630968,6,0.9982591,-67.961939,24,1,1.1,0.9,21.5,0,0,0
25938,2,79.15988369,0,0,13.41467463,6,1.0186243,-75.099442,13.8,1,1.1,0.9,21.7,0.1,0,0
26012,2,1967.033616,0,0,157.965316,6,1.0090724,-69.304102,13.8,1,1.1,0.9,21.39,0.02,0,0
26017,2,-425.400743,0,0,190.2410435,6,1.0388566,-70.280222,13.8,1,1.1,0.9,21.71,0.01,0,0
26051,2,83.87817514,0,0,289.2616522,6,1.0291873,-66.618274,13.8,1,1.1,0.9,21.47,-0.01,0,0
26061,2,-134.6790259,0,0,344.0077236,6,1.0149835,-71.375613,13.8,1,1.1,0.9,21.67,0,0,0
26097,2,-344.6510678,0,0,311.917089,6,1.0204125,-71.082873,18,1,1.1,0.9,21.77,0,0,0
26133,2,998.7005123,0,0,177.1151104,6,1.0249633,-58.714788,24,1,1.1,0.9,21.21,0,0,0
26145,2,224.1852781,0,0,240.7726284,6,1.0284947,-64.723931,13.8,1,1.1,0.9,21.4,-0.01,0,0
26157,2,668.8771289,0,0,343.2162601,6,0.9985794,-66.215037,18,1,1.1,0.9,21.47,-0.01,0,0
26163,2,513.1287418,0,0,245.7632917,6,1.0202195,-64.560445,13.8,1,1.1,0.9,21.44,0,0,0
26197,2,1308.683782,0,0,326.4723111,6,1.0250619,-70.576182,18,1,1.1,0.9,21.63,0,0,0
26215,2,3353.394479,0,0,410.4910054,6,1.0090658,-70.988305,13.8,1,1.1,0.9,21.71,0.02,0,0
28013,1,1532.027402,5.25,0,180.5003304,7,1.0213889,-76.548409,345,1,1.1,0.9,21.89,0.07,0,0
28024,1,653.0361861,6.39,0,114.6171582,7,1.0176244,-78.746874,138,1,1.1,0.9,21.85,0.12,0,0
28048,1,145.8776086,34.27,0,60.03740005,7,1.0050445,-77.61851,345,1,1.1,0.9,21.98,0.11,0,0
28060,1,545.8890598,12.92,0,55.82704621,7,1.021753,-80.507637,138,1,1.1,0.9,22.02,0.14,0,0
28064,1,361.0671532,16.81,0,44.8313677,7,1.0203826,-80.507216,138,1,1.1,0.9,22.04,0.11,0,0
28078,1,37.10878369,25.89,0,175.6733881,7,1.0194422,-77.112172,345,1,1.1,0.9,21.92,0.08,0,0
28099,1,257.7488145,9.18,0,140.6991178,7,1.0101211,-77.652596,345,1,1.1,0.9,21.97,0.09,0,0
28122,1,141.1523122,28.14,0,5.850045248,7,0.984819,-85.719297,13.8,1,1.1,0.9,22.23,0.2,0,0
28128,1,761.1719355,22.22,0,98.48875558,7,1.0157291,-81.38064,138,1,1.1,0.9,22.14,0.12,0,0
28302,1,327.3063492,15,0,136.2226451,7,1.0146951,-78.078399,138,1,1.1,0.9,21.91,0.12,0,0
28361,1,391.134936,25.73,0,115.1120964,7,1.0094112,-78.640673,138,1,1.1,0.9,21.94,0.16,0,0
28365,1,685.5950159,13.02,0,121.110559,7,1.0259877,-78.751605,138,1,1.1,0.9,21.83,0.06,0,0
28401,1,641.0624295,18.71,0,160.5213991,7,1.0122675,-78.412087,138,1,1.1,0.9,21.97,0.15,0,0
28417,1,1718.388753,7.21,0,264.244689,7,1.024974,-78.224886,138,1,1.1,0.9,21.9,0.09,0,0
28474,1,1173.338452,15.52,0,257.6277414,7,1.0212622,-78.046747,138,1,1.1,0.9,21.86,0.05,0,0
28503,1,272.4446191,18.02,0,102.298855,7,1.0221745,-78.176204,138,1,1.1,0.9,21.8,0.07,0,0
28527,1,515.9362718,28.77,0,143.6560332,7,1.0124324,-78.555056,138,1,1.1,0.9,21.96,0.1,0,0
28549,1,764.0644433,14.38,0,213.906899,7,1.009829,-78.643903,138,1,1.1,0.9,21.9,0.09,0,0
28667,1,524.1629621,12.23,0,162.1810184,7,1.014413,-75.672801,138,1,1.1,0.9,21.83,0.13,0,0
28765,2,352.7972853,0,0,195.2735249,7,1.0324166,-68.194929,18,1,1.1,0.9,21.6,0,0,0
28784,2,780.0476706,0,0,235.3139061,7,1.0270478,-70.205887,13.8,1,1.1,0.9,21.63,0.05,0,0
28797,2,808.6118913,0,0,468.4069603,7,0.9867487,-70.865578,18,1,1.1,0.9,21.66,0.03,0,0
28844,2,12.06527491,0,0,431.2442897,7,1.023353,-70.332111,13.8,1,1.1,0.9,21.66,0.01,0,0
28850,2,1030.904912,0,0,420.8830424,7,1.0235433,-68.59264,13.2,1,1.1,0.9,21.5,0.06,0,0
28885,2,2849.372971,0,0,417.1678375,7,1.0375045,-63.931502,24,1,1.1,0.9,21.28,0.06,0,0
29018,2,277.2672979,0,0,272.6608263,7,1.0245336,-70.080761,13.8,1,1.1,0.9,21.64,0,0,0
29027,2,596.3069556,0,0,182.761117,7,1.0302282,-69.586305,13.8,1,1.1,0.9,21.65,0,0,0
29083,2,17.07484837,0,0,237.7157934,7,1.0329485,-68.331499,18,1,1.1,0.9,21.64,0,0,0
30001,1,1165.348483,16.85,0,317.3595683,8,1.0062917,-61.359116,161,1,1.1,0.9,21.31,0.06,0,0
30113,1,675.065712,32.8,0,11.24993527,8,1.0159004,-62.768518,161,1,1.1,0.9,21.27,0.07,0,0
30116,1,203.7578412,26.94,0,6.007862349,8,1.0074808,-63.656366,161,1,1.1,0.9,21.38,0.11,0,0
30124,1,160.144329,25.44,0,58.35581292,8,1.0084541,-63.316725,161,1,1.1,0.9,21.29,0.1,0,0
30126,1,78.19876717,22.11,0,1.8915,8,1.0149461,-63.233328,161,1,1.1,0.9,21.33,0.06,0,0
30127,1,1315.065261,17.34,0,71.77544528,8,1.0136278,-63.057635,161,1,1.1,0.9,21.3,0.07,0,0
30128,1,148.8128439,13.13,0,15.41762499,8,1.0071238,-63.749687,161,1,1.1,0.9,21.39,0.11,0,0
30144,1,180.1661376,46.77,0,19.2646304,8,1.0163605,-63.439792,161,1,1.1,0.9,21.37,0.06,0,0
30146,1,185.3791919,14.43,0,13.09061785,8,1.0079287,-63.102897,161,1,1.1,0.9,21.35,0.08,0,0
30149,1,168.4052144,20.1,0,26.2592523,8,1.0110244,-63.155817,161,1,1.1,0.9,21.33,0.09,0,0
30151,1,33.58076,9.45,0,-7.210839481,8,1.0082286,-62.678417,161,1,1.1,0.9,21.31,0.07,0,0
30172,1,765.9753152,22.01,0,-81.52636986,8,1.0231947,-61.53836,161,1,1.1,0.9,21.14,0.05,0,0
30174,1,106.2832417,35.59,0,23.18543398,8,1.0201024,-63.224481,161,1,1.1,0.9,21.33,0.03,0,0
30182,1,255.321926,14.81,0,37.561271,8,1.0089886,-62.766867,161,1,1.1,0.9,21.3,0.09,0,0
30184,1,157.3910313,26.04,0,42.02938983,8,1.0089968,-62.882593,161,1,1.1,0.9,21.31,0.1,0,0
30189,1,8.806576014,15.25,0,-21.75717827,8,1.011913,-62.211581,161,1,1.1,0.9,21.28,0.08,0,0
30190,1,101.3717236,13.18,0,41.40918987,8,1.0220162,-62.334351,161,1,1.1,0.9,21.23,0.04,0,0
30205,1,158.5987682,39.17,0,28.85009297,8,1.0138094,-62.211819,161,1,1.1,0.9,21.26,0.08,0,0
30207,1,351.5414416,29.25,0,92.31878066,8,1.0135328,-62.546597,161,1,1.1,0.9,21.26,0.08,0,0
30220,1,41.78117431,32.47,0,109.9567094,8,1.0092446,-60.14987,345,1,1.1,0.9,21.19,0.06,0,0
30221,1,-36.47963111,16.76,0,-8.800142873,8,1.0117482,-61.895088,161,1,1.1,0.9,21.25,0.08,0,0
30225,1,121.3179261,9.53,0,29.52286605,8,1.0099254,-62.173687,161,1,1.1,0.9,21.29,0.09,0,0
30226,1,105.0448891,29.47,0,18.16692505,8,1.0103407,-62.209203,161,1,1.1,0.9,21.29,0.09,0,0
30342,2,-76.50740374,0,0,15.45460495,8,1.0334867,-58.966417,18,1,1.1,0.9,21.12,0,0,0
30372,2,33.74630602,0,0,-41.95482412,8,1.02018,-56.094888,13.8,1,1.1,0.9,20.94,0,0,0
30390,2,861.6794351,0,0,408.5952315,8,1.0356301,-52.87731,18,1,1.1,0.9,20.85,-0.01,0,0
30451,2,1916.749746,0,0,21.10232499,8,1.0348458,-58.129108,13.8,1,1.1,0.9,21.02,-0.01,0,0
40001,1,84.06371711,9.47,0,22.37755914,9,1.0120992,-71.40655,115,1,1.1,0.9,21.85,0.14,0,0
40003,1,112.1232264,26.37,0,60.301939,9,1.0193782,-71.079012,115,1,1.1,0.9,21.8,0.09,0,0
40004,1,122.4662734,32.89,0,121.6321801,9,1.0215966,-70.404011,115,1,1.1,0.9,21.65,0.1,0,0
40006,1,143.7559811,0.07,0,34.32561018,9,1.0131927,-67.401193,115,1,1.1,0.9,21.79,0.16,0,0
40007,1,39.44385394,5.16,0,0,9,1.0130278,-67.428064,115,1,1.1,0.9,21.8,0.16,0,0
40008,1,67.08799121,22.41,0,56.5952028,9,1.018395,-65.660718,115,1,1.1,0.9,21.55,0.16,0,0
40050,1,54.08569694,1.23,0,33.63309532,9,1.0112743,-67.339151,115,1,1.1,0.9,21.9,0.12,0,0
40073,1,673.0907697,9.68,0,46.44921647,9,0.9988601,-61.895234,115,1,1.1,0.9,21.43,0.2,0,0
40076,1,2208.240467,19.77,0,822.5444266,9,1.0208907,-61.362981,500,1,1.1,0.9,21.2,0.07,0,0
40144,1,141.9846873,9.36,0,21.17742856,9,1.0173319,-67.731675,115,1,1.1,0.9,21.61,0.21,0,0
40145,1,278.2296037,29.64,0,89.22376675,9,1.0138549,-67.766253,115,1,1.1,0.9,21.73,0.23,0,0
40151,1,134.0708633,6.26,0,106.6967925,9,1.0297522,-66.341214,115,1,1.1,0.9,21.41,0.13,0,0
40154,1,126.9152352,37.62,0,40.45436733,9,1.0060426,-67.200396,115,1,1.1,0.9,21.53,0.27,0,0
40160,1,267.609732,44.06,0,70.16795807,9,1.0166347,-67.605223,115,1,1.1,0.9,21.6,0.21,0,0
40162,1,292.2422555,27.77,0,76.72423324,9,1.0184325,-68.008059,115,1,1.1,0.9,21.72,0.21,0,0
40168,1,1047.872823,18.24,0,204.3822007,9,1.0170469,-67.195328,115,1,1.1,0.9,21.52,0.21,0,0
40169,1,288.9666913,10.65,0,52.35189389,9,1.0091128,-67.708529,115,1,1.1,0.9,21.63,0.25,0,0
40191,1,194.4196292,27.41,0,76.59959673,9,1.0239948,-66.69744,115,1,1.1,0.9,21.51,0.16,0,0
40192,1,191.012702,22.17,0,23.76824235,9,1.0209219,-67.120445,115,1,1.1,0.9,21.57,0.17,0,0
40196,1,223.4773037,18.75,0,46.97767069,9,1.0137828,-67.808016,115,1,1.1,0.9,21.61,0.21,0,0
40206,1,136.1186471,10.27,0,8.706582213,9,1.0380857,-67.467959,115,1,1.1,0.9,21.48,0.05,0,0
40208,1,130.9593488,36.93,0,2.239758867,9,1.0209112,-67.148058,115,1,1.1,0.9,21.57,0.18,0,0
40233,1,158.6500136,20.01,0,33.24863061,9,1.0193441,-67.998987,115,1,1.1,0.9,21.64,0.18,0,0
40279,1,225.9099343,36.88,0,50.69736792,9,1.0197198,-67.749624,115,1,1.1,0.9,21.59,0.19,0,0
40281,1,387.595283,54.4,0,74.82550999,9,1.0086393,-68.487298,115,1,1.1,0.9,21.67,0.21,0,0
40299,1,329.3657731,14.71,0,120.2702325,9,1.0401355,-67.312225,115,1,1.1,0.9,21.45,0.04,0,0
40301,1,259.2247552,67.38,0,46.93359061,9,1.0017858,-68.324547,115,1,1.1,0.9,21.69,0.22,0,0
40309,1,232.4953663,38.72,0,52.29309433,9,1.0216278,-67.776672,115,1,1.1,0.9,21.54,0.13,0,0
40310,1,301.8377028,32.19,0,81.4052659,9,1.0188803,-67.869046,115,1,1.1,0.9,21.57,0.14,0,0
40367,1,176.6712021,20.01,0,44.19126484,9,1.0052719,-67.786456,115,1,1.1,0.9,21.59,0.15,0,0
40369,1,1534.494367,46.27,0,142.2801317,9,1.0013867,-66.458576,115,1,1.1,0.9,21.42,0.16,0,0
40390,1,444.3043464,17.31,0,174.7370588,9,1.0092678,-68.206853,115,1,1.1,0.9,21.67,0.11,0,0
40391,1,278.6655973,17.24,0,55.85925099,9,1.0032704,-68.036656,115,1,1.1,0.9,21.66,0.16,0,0
40399,1,6.626163011,29.45,0,37.15436916,9,1.0063458,-64.15549,115,1,1.1,0.9,21.47,0.12,0,0
40401,1,14.42304774,13.13,0,66.62081301,9,1.0105053,-64.228623,115,1,1.1,0.9,21.41,0.08,0,0
40409,1,619.8588988,25.93,0,166.6728579,9,1.0304027,-67.649885,115,1,1.1,0.9,21.59,0.03,0,0
40410,1,242.5069507,20.27,0,57.61885851,9,1.0056673,-67.77167,115,1,1.1,0.9,21.59,0.15,0,0
40515,1,267.3877424,18.62,0,246.3504108,9,1.0219599,-65.090422,500,1,1.1,0.9,21.55,0.07,0,0
40516,1,201.270704,6.17,0,33.60164937,9,1.0128254,-68.46541,115,1,1.1,0.9,21.68,0.11,0,0
40518,1,369.4388669,24.41,0,121.6008641,9,1.0179598,-67.683442,115,1,1.1,0.9,21.54,0.09,0,0
40519,1,583.9460615,24.18,0,159.4989743,9,1.0012212,-70.341061,115,1,1.1,0.9,22.16,0.12,0,0
40534,1,102.9811161,9.55,0,9.091467607,9,1.0206886,-68.904752,115,1,1.1,0.9,21.7,0.07,0,0
40535,1,302.8086705,20.41,0,52.46466877,9,1.0207443,-68.475309,115,1,1.1,0.9,21.64,0.08,0,0
40563,1,362.7671916,3.95,0,93.5542804,9,1.0270689,-68.150477,115,1,1.1,0.9,21.57,0.06,0,0
40564,1,282.0507831,15.75,0,44.25964465,9,1.0024926,-68.959796,115,1,1.1,0.9,21.73,0.18,0,0
40595,1,115.5432736,4.1,0,69.88498909,9,1.0214302,-56.999327,115,1,1.1,0.9,21.16,0.12,0,0
40602,1,50.18183942,0.61,0,32.82610015,9,1.0157587,-51.796546,115,1,1.1,0.9,21.24,0.21,0,0
40691,1,107.7450843,1.26,0,79.61880499,9,1.0130252,-51.202737,115,1,1.1,0.9,21.02,0.24,0,0
40739,2,460.596518,0,0,82.04727332,9,1.0259522,-62.179517,13.8,1,1.1,0.9,21.33,0.02,0,0
40756,2,1015.437132,0,0,400.6604503,9,1.0198028,-63.381176,13.8,1,1.1,0.9,21.2,0,0,0
40763,2,-36.04744137,0,0,-31.13827498,9,0.9982505,-47.721189,13.8,1,1.1,0.9,20.84,-0.01,0,0
40786,2,1686.289293,0,0,466.6729739,9,1.0024863,-39.599951,18,1,1.1,0.9,20.32,0,0,0
40824,2,166.0447581,0,0,92.32659395,9,1.0233051,-58.787565,13.8,1,1.1,0.9,21.22,0,0,0
40843,2,1876.36944,0,0,341.9717451,9,1.0648015,-50.83737,13.8,1,1.1,0.9,20.93,0.02,0,0
40854,2,129.4272855,0,0,116.0556303,9,1.0339796,-61.158382,13.8,1,1.1,0.9,21.32,0,0,0
40878,2,464.4297625,0,0,-37.79690758,9,1.0060285,-45.101993,13.8,1,1.1,0.9,20.75,0,0,0
40884,2,-159.1900685,0,0,48.72793107,9,1.0102735,-56.679112,13.8,1,1.1,0.9,20.85,0.14,0,0
40903,2,570.5553366,0,0,152.9307008,9,1.0374579,-56.966544,13.8,1,1.1,0.9,21.21,0,0,0
40912,2,173.6146348,0,0,325.2818195,9,0.9731932,-57.194485,13.8,1,1.1,0.9,21.17,0.01,0,0
40934,2,174.7340371,0,0,-47.39202908,9,1.0079015,-49.630047,13.8,1,1.1,0.9,20.89,0,0,0
40984,2,-471.6488963,0,0,131.1911751,9,1.0262938,-55.883315,13.8,1,1.1,0.9,20.93,0,0,0
40993,2,-483.6800907,0,0,247.7568064,9,1.0322348,-60.237952,13.8,1,1.1,0.9,21.12,0.05,0,0
50000,1,23.04437446,1.65,0,77.55604382,10,1.0282739,-45.423308,161,1,1.1,0.9,20.22,0.21,0,0
50007,1,177.685281,1.48,0,63.71493986,10,1.0296629,-45.063952,161,1,1.1,0.9,20.52,-0.05,0,0
50024,1,236.0140106,4.28,0,171.2615166,10,1.0459989,-39.194438,161,1,1.1,0.9,19.83,0.1,0,0
50075,1,353.4425051,36.41,0,115.612075,10,1.0161755,-46.634816,161,1,1.1,0.9,20.45,0.03,0,0
50077,1,991.2507664,42.05,0,335.8743734,10,1.0178323,-46.423568,161,1,1.1,0.9,20.39,0.02,0,0
50099,1,618.359569,21.34,0,352.9660927,10,1.0203391,-44.633195,161,1,1.1,0.9,20.28,0.01,0,0
50101,1,212.1960589,23.55,0,78.05528463,10,1.0148323,-45.040236,161,1,1.1,0.9,20.34,0.03,0,0
50196,1,559.4724341,0.51,0,157.6351598,10,1.0189687,-39.991917,161,1,1.1,0.9,20.4,0.01,0,0
50316,1,774.3297779,2.51,0,148.981865,10,1.0319585,-38.83789,161,1,1.1,0.9,20.03,-0.01,0,0
50360,2,111.3471645,0,0,185.9411454,10,1.0284612,-39.068022,18,1,1.1,0.9,20.15,0,0,0
50385,2,698.8854034,0,0,332.165878,10,1.0159176,-26.050446,20,1,1.1,0.9,19.33,0.31,0,0
50397,2,2579.569185,0,0,237.6688699,10,1.0172138,-31.161003,18,1,1.1,0.9,19.67,0,0,0
50443,2,904.8029295,0,0,634.9211021,10,1.0240999,-43.282668,500,1,1.1,0.9,20.26,0,0,0
50448,2,-65.20605661,0,0,149.7547324,10,1.030704,-30.404624,13.8,1,1.1,0.9,19.71,0,0,0
53000,1,94.71438256,1.26,0,57.42707977,11,1.0073293,-67.776384,115,1,1.1,0.9,22.93,0.09,0,0
53002,1,137.6994996,0.68,0,69.57147486,11,1.0107011,-61.037938,115,1,1.1,0.9,22.43,0.09,0,0
53012,1,155.1622452,1.06,0,57.94111361,11,1.0110733,-70.874654,115,1,1.1,0.9,22.48,0.09,0,0
53215,2,211.9080857,0,0,284.6203282,11,1.031886,-41.747934,13.8,1,1.1,0.9,20.36,0.22,0,0
53253,2,539.9960308,0,0,77.70964896,11,1.0352924,-63.127733,13.8,1,1.1,0.9,21.85,0,0,0
53297,2,1518.58103,0,0,510.1077782,11,1.0257458,-38.753126,24,1,1.1,0.9,20.25,0.22,0,0
60000,1,198.2345117,0.67,0,57.4125259,12,1.0307152,-48.415888,115,1,1.1,0.9,20.81,0.17,0,0
60003,1,260.0662207,9.83,0,126.6916432,12,0.9919323,-51.022091,115,1,1.1,0.9,21.43,0.27,0,0
60194,1,600.3229398,17.16,0,159.9847343,12,1.0118602,-51.567777,115,1,1.1,0.9,20.99,0.18,0,0
60308,1,1840.558713,8.07,0,541.2599752,12,1.010539,-52.263623,115,1,1.1,0.9,21.06,0.18,0,0
60309,1,375.1857941,34.07,0,77.377516,12,1.0072404,-52.66571,115,1,1.1,0.9,21.14,0.2,0,0
60403,1,710.7544247,33.74,0,168.2183795,12,1.0000884,-53.727318,115,1,1.1,0.9,21.32,0.22,0,0
60494,1,221.2827953,34.98,0,135.4700154,12,1.0111684,-53.844846,115,1,1.1,0.9,21.42,0.12,0,0
60495,1,368.1883951,4.95,0,168.0604381,12,1.0150996,-52.31331,115,1,1.1,0.9,21.14,0.15,0,0
60512,1,110.9650704,32.95,0,34.31908506,12,0.9466511,-71.570066,18,1,1.1,0.9,22.26,0.6,0,0
60514,1,431.0387505,12.15,0,140.4674785,12,1.0081397,-53.328231,115,1,1.1,0.9,21.32,0.16,0,0
60577,1,82.08212876,1.78,0,44.88125752,12,1.0275672,-57.243474,115,1,1.1,0.9,21.85,0.06,0,0
60629,2,658.9883692,0,0,86.62105879,12,1.0257769,-39.616099,18,1,1.1,0.9,20.41,0.04,0,0
60651,2,789.6363931,0,0,168.0790224,12,1.0380286,-40.15115,24,1,1.1,0.9,20.32,0.12,0,0
60662,2,1980.838949,0,0,353.4859346,12,1.0295495,-35.091858,13.8,1,1.1,0.9,20.34,0,0,0
60686,2,-62.78737945,0,0,326.8019981,12,1.0132208,-42.994588,13.8,1,1.1,0.9,20.67,0,0,0
60727,2,1889.893061,0,0,435.0675542,12,1.0250875,-43.587749,18,1,1.1,0.9,20.74,0,0,0
60751,2,221.7716917,0,0,169.24803,12,1.033949,-36.510653,20,1,1.1,0.9,20.46,0,0,0
60775,2,340.7624881,0,0,120.934084,12,1.0155462,-43.27938,13.8,1,1.1,0.9,20.42,0.34,0,0
60833,2,-71.56495503,0,0,173.0624171,12,1.0258665,-41.677772,13.8,1,1.1,0.9,20.67,0,0,0
60872,2,1191.407324,0,0,255.8495952,12,0.9917034,-31.808056,18,1,1.1,0.9,20.09,0,0,0
60891,2,414.7829256,0,0,164.1428198,12,1.0295186,-38.389192,13.8,1,1.1,0.9,20.51,0,0,0
70000,1,519.338066,3.07,0,134.1553953,13,1.01249,-41.096928,138,1,1.1,0.9,20.77,0,0,0
70016,1,114.8707825,9.15,0,108.0371281,13,1.0000743,-32.723338,138,1,1.1,0.9,20.03,0.3,0,0
70063,1,-108.2433504,4.04,0,132.0781724,13,1.0235832,-6.664703,138,1,1.1,0.9,18.4,0.05,0,0
70097,2,499.1659734,0,0,269.4134086,13,1.0394,-17.420334,13.8,1,1.1,0.9,19.09,0,0,0
70125,2,136.1524567,0,0,236.6312387,13,1.0159509,-33.721843,13.8,1,1.1,0.9,19.93,0,0,0
70134,2,-288.3676729,0,0,280.3040282,13,0.9641463,-1.358349,13.8,1,1.1,0.9,18.27,0,0,0
70153,2,214.7935234,0,0,230.4056472,13,1.0128396,-24.394771,13.8,1,1.1,0.9,19.35,0,0,0
70172,2,529.4671251,0,0,210.9910081,13,0.9881856,-23.147801,13.8,1,1.1,0.9,19.58,0,0,0
74001,1,650.4112131,1.7,0,208.5148643,14,1.0205057,-34.319287,138,1,1.1,0.9,20.35,-0.01,0,0
74053,1,138.8048496,4.12,0,33.44488725,14,1.0366279,-15.376613,138,1,1.1,0.9,19.21,-0.01,0,0
74104,1,544.4791821,0.66,0,64.37982268,14,1.0395829,-38.53359,138,1,1.1,0.9,20.24,0.07,0,0
74132,1,269.0182507,4.24,0,211.5011628,14,1.0454403,-23.249415,138,1,1.1,0.9,19.25,-0.07,0,0
74235,1,2206.719935,0.82,0,147.3094576,14,1.0280203,-14.970267,138,1,1.1,0.9,18.97,0.02,0,0
77001,1,135.4405885,0.96,0,86.69643627,15,1.0315268,-7.217569,138,1,1.1,0.9,17.2,0.04,0,0
77173,1,-51.70307696,2.95,0,25.95125943,15,1.0247268,-12.623648,138,1,1.1,0.9,18.89,0.01,0,0
77258,2,2241.297663,0,0,434.8576754,15,0.9925613,-6.13812,13.8,1,1.1,0.9,17.33,0,0,0
80007,1,1066.986609,16.82,0,274.6326352,16,1.0433851,-74.983937,115,1,1.1,0.9,22.33,0.03,0,0
80046,1,209.1459541,21.98,0,115.3097403,16,1.0444522,-76.018618,115,1,1.1,0.9,22.44,0.08,0,0
80047,1,167.2402108,27,0,29.07178911,16,1.0233389,-77.62202,115,1,1.1,0.9,22.78,0.2,0,0
80050,1,257.7676157,12.29,0,92.00379904,16,1.0233689,-76.271868,115,1,1.1,0.9,22.52,0.16,0,0
80091,2,425.704424,0,0,104.5863683,16,1.0257856,-65.988171,22,1,1.1,0.9,22.14,0,0,0
